LTspice 24.1.5 for Windows
Circuit: D:\Facultad\5to Año\Primer Cuatrimestre\Sistemas de Adquisición y Procesamiento de Señales\Practica_parcial_5\DesignFiles\SPICE Files\LTspice\ACAnalysis.net
Start Time: Sat Jun 21 20:10:50 2025
solver = Normal
Maximum thread count: 8
tnom = 27
temp = 27
method = modified trap
Direct Newton iteration failed to find .op point.  (Use ".option noopiter" to skip.)
Starting Gmin stepping
Gmin = 10
Gmin = 1.07374
Gmin = 0.115292
Gmin = 0.0123794
Gmin = 0.00132923
Gmin = 0.000142725
Gmin = 1.5325e-05
Gmin = 1.6455e-06
Gmin = 1.76685e-07
Gmin = 1.89714e-08
vernier = 0.5
vernier = 0.25
vernier = 0.125
vernier = 0.0625
vernier = 0.03125
vernier = 0.015625
vernier = 0.0078125
vernier = 0.00390625
vernier = 0.00195312
vernier = 0.000976562
Gmin = 2.37142e-08
vernier = 0.000488281
Gmin = 0
Gmin stepping failed

Starting source stepping with srcstepmethod=0
Source Step = 3.0303%
vernier = 0.25
Source Step = 7.57576%
Source Step = 15.1515%
Source Step = 19.1288%
Source Step = 21.0227%
Source Step = 22.9167%
Source Step = 24.8106%
Source Step = 26.7045%
vernier = 0.09375
Source Step = 28.9773%
Source Step = 31.8182%
Source Step = 34.6591%
Source Step = 37.5%
Source Step = 40.3409%
vernier = 0.140625
Source Step = 43.608%
Source Step = 47.8693%
Source Step = 52.1307%
Source Step = 56.392%
Source Step = 60.6534%
vernier = 0.210938
Source Step = 65.3409%
Source Step = 71.733%
Source Step = 78.125%
Source Step = 84.517%
Source Step = 90.9091%
vernier = 0.316406
Source Step = 97.6207%
Source stepping succeeded in finding the operating point.

Total elapsed time: 0.478 seconds.

Files loaded:
D:\Facultad\5to Año\Primer Cuatrimestre\Sistemas de Adquisición y Procesamiento de Señales\Practica_parcial_5\DesignFiles\SPICE Files\LTspice\ACAnalysis.net
C:\Users\Equipo\AppData\Local\LTspice\lib\sub\LTC.lib

