LTspice 24.1.5 for Windows
Circuit: D:\Facultad\5to Año\Primer Cuatrimestre\Sistemas de Adquisición y Procesamiento de Señales\Practica_Parcial_2\DesignFiles (5)\SPICE Files\LTspice\ACAnalysis.net
Start Time: Fri May 30 19:07:43 2025
solver = Normal
Maximum thread count: 8
tnom = 27
temp = 27
method = modified trap
Early termination of direct N-R iteration.
Direct Newton iteration failed to find .op point.  (Use ".option noopiter" to skip.)
Starting Gmin stepping
Gmin = 10
Gmin = 1.07374
Gmin = 0.115292
Gmin = 0.0123794
Gmin = 0.00132923
Gmin = 0.000142725
Gmin = 1.5325e-05
Gmin = 1.6455e-06
vernier = 0.5
vernier = 0.25
vernier = 0.125
Gmin = 8.81044e-07
vernier = 0.0625
vernier = 0.0833333
Gmin = 7.66419e-07
vernier = 0.0416667
vernier = 0.0208333
vernier = 0.0104167
Gmin = 7.60366e-07
vernier = 0.0138889
vernier = 0.00694444
Gmin = 7.47294e-07
vernier = 0.00347222
vernier = 0.00462963
vernier = 0.00231481
Gmin = 7.44489e-07
vernier = 0.00308642
vernier = 0.00154321
Gmin = 7.41766e-07
vernier = 0.000771604
vernier = 0.00102881
vernier = 0.000514403
Gmin = 7.41146e-07
vernier = 0.00068587
vernier = 0.000514403
Gmin = 0
Gmin stepping failed

Starting source stepping with srcstepmethod=0
Source Step = 3.0303%
Source Step = 33.3333%
Source Step = 63.6364%
Source Step = 93.9394%
Source stepping succeeded in finding the operating point.

Total elapsed time: 0.190 seconds.

Files loaded:
D:\Facultad\5to Año\Primer Cuatrimestre\Sistemas de Adquisición y Procesamiento de Señales\Practica_Parcial_2\DesignFiles (5)\SPICE Files\LTspice\ACAnalysis.net
C:\Users\Equipo\AppData\Local\LTspice\lib\sub\LTC5.lib

