LTspice 24.1.10 for Windows
Circuit: C:\Users\narec\Documents\SAPS\TP\DesignFiles\SPICE Files\LTspice\StageA_LowPassSallenKey_LT6004.net
Start Time: Sun Sep 21 23:14:08 2025
solver = Normal
Maximum thread count: 4
tnom = 27
temp = 27
method = trap
WARNING: Node n001 is floating.

No AC stimulus found:
     Set the value of a current or voltage source to "AC 1."
     to make it behave as a signal generator for AC analysis.
Direct Newton iteration for .op point succeeded.
Total elapsed time: 0.176 seconds.

Files loaded:
C:\Users\narec\Documents\SAPS\TP\DesignFiles\SPICE Files\LTspice\StageA_LowPassSallenKey_LT6004.net
C:\Users\narec\AppData\Local\LTspice\lib\sub\LTC5.lib

