LTspice 24.1.5 for Windows
Circuit: D:\Facultad\5to Año\Primer Cuatrimestre\Sistemas de Adquisición y Procesamiento de Señales\Practica_Parcial_6\DesignFiles\SPICE Files\LTspice\ACAnalysis.net
Start Time: Sun Jun 22 20:34:12 2025
solver = Normal
Maximum thread count: 8
tnom = 27
temp = 27
method = modified trap
Direct Newton iteration failed to find .op point.  (Use ".option noopiter" to skip.)
Starting Gmin stepping
Gmin = 10
Gmin = 1.07374
Gmin = 0.115292
Gmin = 0.0123794
Gmin = 0.00132923
Gmin = 0.000142725
Gmin = 1.5325e-05
Gmin = 1.6455e-06
vernier = 0.5
vernier = 0.25
vernier = 0.125
Gmin = 8.81044e-07
vernier = 0.166667
Gmin = 6.15934e-07
vernier = 0.222222
vernier = 0.296296
Gmin = 3.44998e-07
vernier = 0.395061
vernier = 0.526748
Gmin = 1.39816e-07
vernier = 0.702331
Gmin = 3.35475e-08
vernier = 0.936441
vernier = 1
vernier = 0.5
Gmin = 7.18009e-09
vernier = 0.25
vernier = 0.125
vernier = 0.0625
vernier = 0.03125
Gmin = 6.8554e-09
vernier = 0.0416667
Gmin = 6.26083e-09
vernier = 0.0555555
vernier = 0.074074
Gmin = 5.39861e-09
vernier = 0.0987653
vernier = 0.131687
Gmin = 4.27316e-09
vernier = 0.175583
Gmin = 2.93175e-09
vernier = 0.23411
vernier = 0.312147
Gmin = 1.59351e-09
vernier = 0.416196
vernier = 0.554928
Gmin = 6.16743e-10
vernier = 0.739903
Gmin = 1.37863e-10
vernier = 0.986537
vernier = 1
Gmin = 1.58699e-11
Gmin = 1.70402e-12
Gmin = 1.82968e-13
Gmin = 0
Gmin stepping succeeded in finding the operating point.

Total elapsed time: 0.276 seconds.

Files loaded:
D:\Facultad\5to Año\Primer Cuatrimestre\Sistemas de Adquisición y Procesamiento de Señales\Practica_Parcial_6\DesignFiles\SPICE Files\LTspice\ACAnalysis.net
C:\Users\Equipo\AppData\Local\LTspice\lib\sub\LTC5.lib

